<edges xmlns:xsi="http://www.w3.org/2001/XMLSchema-instance" xsi:noNamespaceSchemaLocation="http://sumo-sim.org/xsd/edges_file.xsd">

	<edge id="1" from="dl" to="dr" numLanes="4" speed="30" width="3.5"/>
	<edge id="2" from="dr" to="tr"  numLanes="4" speed="30" width="3.5" shape="1216.58218,1.450752924 1232.660518,5.758930707 1247.746483,12.79363175 1261.381695,22.34111022 1273.151856,34.11127081 1282.699334,47.74648315 1289.734035,62.83244822 1294.042213,78.91078659 1295.492966,95.4929661 1294.042213,112.0751456 1289.734035,128.153484 1282.699334,143.2394491 1273.151856,156.8746614 1261.381695,168.644822 1247.746483,178.1923005 1232.660518,185.2270015 1216.58218,189.5351793"/>
	<edge id="3" from="tr" to="tl"  numLanes="4" speed="30" width="3.5"/>
  <edge id="4" from="tl" to="dl"  numLanes="4" speed="30" width="3.5" shape="-16.58217951,189.5351791 -32.66051788,185.2270013 -47.74648295,178.1923003 -61.38169529,168.6448218 -73.15185588,156.8746612 -82.69933435,143.2394489 -89.73403539,128.1534838 -94.04221318,112.0751454 -95.4929659,95.4929659 -94.04221318,78.91078639 -89.73403539,62.83244802 -82.69933435,47.74648295 -73.15185588,34.11127061 -61.38169529,22.34111002 -47.74648295,12.79363155 -32.66051788,5.758930507 -16.58217951,1.450752724"/>

  <edge id="6" from="tl" to="tr"  numLanes="4" speed="30" width="3.5"/>
	<edge id="7" from="tr" to="dr"  numLanes="4" speed="30" width="3.5" shape="1216.58218,189.5351793 1232.660518,185.2270015 1247.746483,178.1923005 1261.381695,168.644822 1273.151856,156.8746614 1282.699334,143.2394491 1289.734035,128.153484 1294.042213,112.0751456 1295.492966,95.4929661 1294.042213,78.91078659 1289.734035,62.83244822 1282.699334,47.74648315 1273.151856,34.11127081 1261.381695,22.34111022 1247.746483,12.79363175 1232.660518,5.758930707 1216.58218,1.450752924"/>
  <edge id="8" from="dr" to="dl"  numLanes="4" speed="30" width="3.5"/>
  <edge id="9" from="dl" to="tl"  numLanes="4" speed="30" width="3.5" shape="-16.58217951,1.450752724 -32.66051788,5.758930507 -47.74648295,12.79363155 -61.38169529,22.34111002 -73.15185588,34.11127061 -82.69933435,47.74648295 -89.73403539,62.83244802 -94.04221318,78.91078639 -95.4929659,95.4929659 -94.04221318,112.0751454 -89.73403539,128.1534838 -82.69933435,143.2394489 -73.15185588,156.8746612 -61.38169529,168.6448218 -47.74648295,178.1923003 -32.66051788,185.2270013 -16.58217951,189.5351791"/> 
  
</edges>

<!--
  Networks/SUMO Road Networks
  http://sumo.dlr.de/wiki/Networks/SUMO_Road_Networks

  SUMO edge type file
  http://sumo.dlr.de/wiki/SUMO_edge_type_file
  -->
  
  <!--
  Velocity Units Converter
  http://www.engineeringtoolbox.com/velocity-units-converter-d_1035.html
  110km/hr -> 30m/s
  100km/hr -> 27.8m/s
  50km/hr -> 13.9m/s
  
  Edge width  
  採用公制以後的道路構造令在郊區高速公路的部分分成1~4級
  在平原區設計速率120、100、80的車道寬原則為3.50公尺
  1級的車道寬可以放大到3.75公尺，
  2級可以3.25~3.75公尺，
  4級設計速率60公里，車道寬3.25公尺

  台灣80km/h以上3.50~3.75公尺(高速公路110km/h實際用3.65公尺)
  60、70km/h採3.25~3.50公尺
-->


